/*--------------------------------*- C++ -*----------------------------------*\
| =========                 |                                                 |
| \\      /  F ield         | OpenFOAM: The Open Source CFD Toolbox           |
|  \\    /   O peration     | Version:  2406                                  |
|   \\  /    A nd           | Website:  www.openfoam.com                      |
|    \\/     M anipulation  |                                                 |
\*---------------------------------------------------------------------------*/
FoamFile
{
    version     2.0;
    format      ascii;
    arch        "LSB;label=32;scalar=64";
    class       polyBoundaryMesh;
    location    "constant/polyMesh";
    object      boundary;
}
// * * * * * * * * * * * * * * * * * * * * * * * * * * * * * * * * * * * * * //

7
(
    inlet
    {
        type            patch;
        nFaces          3657;
        startFace       952750;
    }
    outlet
    {
        type            patch;
        nFaces          3670;
        startFace       956407;
    }
    top
    {
        type            cyclic;
        inGroups        1(cyclic);
        nFaces          3150;
        startFace       960077;
        matchTolerance  0.0001;
        transform       unknown;
        neighbourPatch  bottom;
    }
    bottom
    {
        type            cyclic;
        inGroups        1(cyclic);
        nFaces          3150;
        startFace       963227;
        matchTolerance  0.0001;
        transform       unknown;
        neighbourPatch  top;
    }
    front
    {
        type            cyclic;
        inGroups        1(cyclic);
        nFaces          2945;
        startFace       966377;
        matchTolerance  0.0001;
        transform       unknown;
        neighbourPatch  back;
    }
    back
    {
        type            cyclic;
        inGroups        1(cyclic);
        nFaces          2945;
        startFace       969322;
        matchTolerance  0.0001;
        transform       unknown;
        neighbourPatch  front;
    }
    media
    {
        type            wall;
        inGroups        1(wall);
        nFaces          102737;
        startFace       972267;
    }
)

// ************************************************************************* //
