/*--------------------------------*- C++ -*----------------------------------*\
| =========                 |                                                 |
| \\      /  F ield         | OpenFOAM: The Open Source CFD Toolbox           |
|  \\    /   O peration     | Version:  v2206                                 |
|   \\  /    A nd           | Website:  www.openfoam.com                      |
|    \\/     M anipulation  |                                                 |
\*---------------------------------------------------------------------------*/
FoamFile
{
    version     2.0;
    format      ascii;
    class       dictionary;
    object      blockMeshDict;
}
// * * * * * * * * * * * * * * * * * * * * * * * * * * * * * * * * * * * * * //

xMin -1.;
xMax  1.;
yMin -1.;
yMax  1.;
zMin -1.;
zMax  1.;

vertices
(
    ($xMin $yMin $zMin)    //0
    ($xMax $yMin $zMin)    //1
    ($xMax $yMax $zMin)    //2
    ($xMin $yMax $zMin)    //3

    ($xMin $yMin $zMax)   //4
    ($xMax $yMin $zMax)   //5
    ($xMax $yMax $zMax)   //6
    ($xMin $yMax $zMax)   //7

);

blocks
(
    hex (0 1 2 3 4 5 6 7) (50 50 50) simpleGrading (1 1 1)
);

boundary
(
    inlet
    {
        type patch;
        faces
        (
            (0 4 7 3)
        );
    }

    outlet
    {
        type patch;
        faces
        (
            (1 2 6 5)
        );
    }

    top
    {
        type symmetryPlane;
        faces
        (
            (4 5 1 0)
        );
    }

    bottom
    {
        type symmetryPlane;
        faces
        (
            (7 6 2 3)
        );
    }

    front
    {
        type symmetryPlane;
        faces
        (
            (4 5 6 7)
        );
    }
    back
    {
        type symmetryPlane;
        faces
        (
            (0 1 2 3)
        );
    }
);


// ************************************************************************* //
